ABEBUI
  --CCDC--080525    3D                              

 50 53  0  0  0  0  0  0  0  0999 V2000
    2.1531    0.8737    9.8201 S      0
    1.7904    2.4805    4.2002 F      0
    2.7240   -0.4427    9.7896 O      0
    0.9656    1.0565   10.5914 O      0
    1.9094    1.3722    8.1171 C      0
    2.5833    0.6443    7.1565 C      0
    3.0816   -0.0965    7.4168 H      0
    2.5370    0.9875    5.8158 C      0
    2.9803    0.4855    5.1709 H      0
    1.8087    2.0995    5.4820 C      0
    1.1214    2.8915    6.3957 C      0
    0.3460    4.0414    5.9922 C      0
    0.3067    4.2832    5.0950 H      0
   -0.3062    4.7510    6.8951 C      0
   -0.7883    5.4991    6.6277 H      0
   -0.2799    4.3925    8.2476 C      0
   -0.7574    4.9067    8.8565 H      0
    0.4278    3.3062    8.7078 C      0
    0.4274    3.0912    9.6134 H      0
    1.1574    2.5184    7.7804 C      0
    3.4006    2.0512   10.4258 C      0
    2.9744    2.9330   10.4044 H      0
    3.7208    1.7752   11.8854 C      0
    3.4925    2.7682   12.8200 C      0
    3.1077    3.5706   12.5497 H      0
    3.8276    2.5880   14.1526 C      0
    3.6650    3.2744   14.7596 H      0
    4.3962    1.4131   14.6004 C      0
    4.6063    0.4153   13.6603 C      0
    4.9826   -0.3902   13.9344 H      0
    4.2754    0.5807   12.3310 C      0
    4.4247   -0.1118   11.7284 H      0
    4.7610    1.1951   16.0496 C      0
    5.7059    1.3184   16.1633 H      0
    4.5205    0.3023   16.3093 H      0
    4.2877    1.8259   16.5977 H      0
    4.5874    2.1337    9.4823 C      0
    5.4830    1.0968    9.2609 C      0
    5.3574    0.2815    9.6892 H      0
    6.5584    1.2635    8.4117 C      0
    7.1382    0.5490    8.2780 H      0
    6.8009    2.4378    7.7605 C      0
    5.9055    3.4601    7.9707 C      0
    6.0365    4.2722    7.5363 H      0
    4.8155    3.3123    8.8123 C      0
    4.2267    4.0231    8.9267 H      0
    8.0145    2.6161    6.8754 C      0
    8.7330    2.9941    7.3883 H      0
    7.7963    3.2042    6.1478 H      0
    8.2839    1.7630    6.5271 H      0
  1  3  2
  1  4  2
  1  5  1
  1 21  1
  2 10  1
  5  6  4
  5 20  4
  6  7  1
  6  8  4
  8  9  1
  8 10  4
 10 11  4
 11 12  4
 11 20  4
 12 13  1
 12 14  4
 14 15  1
 14 16  4
 16 17  1
 16 18  4
 18 19  1
 18 20  4
 21 22  1
 21 23  1
 21 37  1
 23 24  4
 23 31  4
 24 25  1
 24 26  4
 26 27  1
 26 28  4
 28 29  4
 28 33  1
 29 30  1
 29 31  4
 31 32  1
 33 34  1
 33 35  1
 33 36  1
 37 38  4
 37 45  4
 38 39  1
 38 40  4
 40 41  1
 40 42  4
 42 43  4
 42 47  1
 43 44  1
 43 45  4
 45 46  1
 47 48  1
 47 49  1
 47 50  1
M  END
$$$$
